<configuration>
    <input>
        <net-file value="highway.net.xml" />
        <route-files value="highway.rou.xml" />
        <additional-files value="additional.xml" />
    </input>
    <time>
        <begin value="0" />
        <end value="1000" />
    </time>
</configuration>

